ULAD215/gds_ULAD215.dss
New Loadshape.MyIrrad npts=24 interval=1 mult=[0 0 0 0 0 0 0.03 0.18 0.44 0.7 0.9 0.98 1 0.94 0.8 0.6 0.35 0.14 0.016 0 0 0 0 0] 
New Tshape.MyTemp npts=24 interval=1 temp=[21.5 21 20.6 20.2 19.8 19.5 19.2 20.2 25.5 34.3 42.6 49.3 53.6 55.1 54.4 51.3 45.6 38.4 31.1 25.7 24.0 23.2 22.5 22] 
New XYCurve.MyPvsT npts=4 xarray=[0 25 75 100] yarray=[1.2 1.0 0.8 0.6] 
New XYCurve.MyEff npts=4 xarray=[0.1 0.2 0.4 1.0] yarray=[0.86 0.90 0.93 0.97] 

New PVSystem.BT1999 bus1=1003002584.1.2.4 phases=1 conn=delta kv=0.22 kva=22.86 pf=1 irrad=0.84 pmpp=22.86 temperature=25 %cutin=0.1 %cutout=0.1 effcurve=MyEff p-tcurve=MyPvsT Daily=MyIrrad TDaily=MyTemp 
New PVSystem.BT2102 bus1=1002966527.1.2.4 phases=1 conn=delta kv=0.22 kva=22.86 pf=1 irrad=0.84 pmpp=22.86 temperature=25 %cutin=0.1 %cutout=0.1 effcurve=MyEff p-tcurve=MyPvsT Daily=MyIrrad TDaily=MyTemp 
New PVSystem.BT4244 bus1=1010593851.1.2.3.4 phases=3 conn=delta kv=0.22 kva=22.86 pf=1 irrad=0.84 pmpp=22.86 temperature=25 %cutin=0.1 %cutout=0.1 effcurve=MyEff p-tcurve=MyPvsT Daily=MyIrrad TDaily=MyTemp 
New PVSystem.BT4257 bus1=1011155796.1.2.4 phases=1 conn=delta kv=0.22 kva=47.625 pf=1 irrad=0.84 pmpp=47.625 temperature=25 %cutin=0.1 %cutout=0.1 effcurve=MyEff p-tcurve=MyPvsT Daily=MyIrrad TDaily=MyTemp 
New PVSystem.BT4261 bus1=1010896914.1.2.4 phases=1 conn=delta kv=0.22 kva=24.003 pf=1 irrad=0.84 pmpp=24.003 temperature=25 %cutin=0.1 %cutout=0.1 effcurve=MyEff p-tcurve=MyPvsT Daily=MyIrrad TDaily=MyTemp 
New PVSystem.BT91659 bus1=1006537794.3.1.4 phases=1 conn=delta kv=0.22 kva=22.86 pf=1 irrad=0.84 pmpp=22.86 temperature=25 %cutin=0.1 %cutout=0.1 effcurve=MyEff p-tcurve=MyPvsT Daily=MyIrrad TDaily=MyTemp 
New PVSystem.BT91678 bus1=1010184096.1.2.4 phases=1 conn=delta kv=0.22 kva=22.86 pf=1 irrad=0.84 pmpp=22.86 temperature=25 %cutin=0.1 %cutout=0.1 effcurve=MyEff p-tcurve=MyPvsT Daily=MyIrrad TDaily=MyTemp 
New PVSystem.BT91797 bus1=1010593851.1.2.3.4 phases=3 conn=delta kv=0.22 kva=22.86 pf=1 irrad=0.84 pmpp=22.86 temperature=25 %cutin=0.1 %cutout=0.1 effcurve=MyEff p-tcurve=MyPvsT Daily=MyIrrad TDaily=MyTemp 
New PVSystem.BT91799 bus1=1010710045.1.2.3.4 phases=3 conn=delta kv=0.22 kva=22.86 pf=1 irrad=0.84 pmpp=22.86 temperature=25 %cutin=0.1 %cutout=0.1 effcurve=MyEff p-tcurve=MyPvsT Daily=MyIrrad TDaily=MyTemp 
New PVSystem.BT91820 bus1=1011443156.1.2.4 phases=1 conn=delta kv=0.22 kva=24.003 pf=1 irrad=0.84 pmpp=24.003 temperature=25 %cutin=0.1 %cutout=0.1 effcurve=MyEff p-tcurve=MyPvsT Daily=MyIrrad TDaily=MyTemp 
New PVSystem.BT91973 bus1=1003267233.1.2.3.4 phases=3 conn=delta kv=0.22 kva=15.24 pf=1 irrad=0.84 pmpp=15.24 temperature=25 %cutin=0.1 %cutout=0.1 effcurve=MyEff p-tcurve=MyPvsT Daily=MyIrrad TDaily=MyTemp 
New PVSystem.BT92088 bus1=1005175468.1.2.4 phases=1 conn=delta kv=0.22 kva=22.86 pf=1 irrad=0.84 pmpp=22.86 temperature=25 %cutin=0.1 %cutout=0.1 effcurve=MyEff p-tcurve=MyPvsT Daily=MyIrrad TDaily=MyTemp 
New PVSystem.BT92130 bus1=1004970326.2.3.4 phases=1 conn=delta kv=0.22 kva=22.86 pf=1 irrad=0.84 pmpp=22.86 temperature=25 %cutin=0.1 %cutout=0.1 effcurve=MyEff p-tcurve=MyPvsT Daily=MyIrrad TDaily=MyTemp 
New PVSystem.BT92179 bus1=1003267240.2.3.4 phases=1 conn=delta kv=0.22 kva=22.86 pf=1 irrad=0.84 pmpp=22.86 temperature=25 %cutin=0.1 %cutout=0.1 effcurve=MyEff p-tcurve=MyPvsT Daily=MyIrrad TDaily=MyTemp 
New PVSystem.BT92185 bus1=1002987072.1.2.3.4 phases=3 conn=delta kv=0.22 kva=22.86 pf=1 irrad=0.84 pmpp=22.86 temperature=25 %cutin=0.1 %cutout=0.1 effcurve=MyEff p-tcurve=MyPvsT Daily=MyIrrad TDaily=MyTemp 
New PVSystem.BT92214 bus1=1002978910.1.2.3.4 phases=3 conn=delta kv=0.22 kva=26.67 pf=1 irrad=0.84 pmpp=26.67 temperature=25 %cutin=0.1 %cutout=0.1 effcurve=MyEff p-tcurve=MyPvsT Daily=MyIrrad TDaily=MyTemp 
New PVSystem.BT92247 bus1=1002979064.1.2.4 phases=1 conn=delta kv=0.22 kva=22.86 pf=1 irrad=0.84 pmpp=22.86 temperature=25 %cutin=0.1 %cutout=0.1 effcurve=MyEff p-tcurve=MyPvsT Daily=MyIrrad TDaily=MyTemp 
New PVSystem.BT92533 bus1=1003005482.2.3.4 phases=1 conn=delta kv=0.22 kva=22.86 pf=1 irrad=0.84 pmpp=22.86 temperature=25 %cutin=0.1 %cutout=0.1 effcurve=MyEff p-tcurve=MyPvsT Daily=MyIrrad TDaily=MyTemp 
New PVSystem.BT92596 bus1=1004887285.3.1.4 phases=1 conn=delta kv=0.22 kva=22.86 pf=1 irrad=0.84 pmpp=22.86 temperature=25 %cutin=0.1 %cutout=0.1 effcurve=MyEff p-tcurve=MyPvsT Daily=MyIrrad TDaily=MyTemp 
New PVSystem.BT92680 bus1=1011196421.1.2.4 phases=1 conn=delta kv=0.22 kva=47.625 pf=1 irrad=0.84 pmpp=47.625 temperature=25 %cutin=0.1 %cutout=0.1 effcurve=MyEff p-tcurve=MyPvsT Daily=MyIrrad TDaily=MyTemp 
New PVSystem.BT93020 bus1=1005315356.1.2.4 phases=1 conn=delta kv=0.22 kva=22.86 pf=1 irrad=0.84 pmpp=22.86 temperature=25 %cutin=0.1 %cutout=0.1 effcurve=MyEff p-tcurve=MyPvsT Daily=MyIrrad TDaily=MyTemp 
New PVSystem.BT93409 bus1=1003010522.1.2.4 phases=1 conn=delta kv=0.22 kva=22.86 pf=1 irrad=0.84 pmpp=22.86 temperature=25 %cutin=0.1 %cutout=0.1 effcurve=MyEff p-tcurve=MyPvsT Daily=MyIrrad TDaily=MyTemp 
New PVSystem.BT93457 bus1=1010181939.1.2.3.4 phases=3 conn=delta kv=0.22 kva=38.1 pf=1 irrad=0.84 pmpp=38.1 temperature=25 %cutin=0.1 %cutout=0.1 effcurve=MyEff p-tcurve=MyPvsT Daily=MyIrrad TDaily=MyTemp 
New PVSystem.BT93472 bus1=1002994429.1.2.3.4 phases=3 conn=delta kv=0.22 kva=19.05 pf=1 irrad=0.84 pmpp=19.05 temperature=25 %cutin=0.1 %cutout=0.1 effcurve=MyEff p-tcurve=MyPvsT Daily=MyIrrad TDaily=MyTemp 
New PVSystem.BT93489 bus1=1010656414.1.2.3.4 phases=3 conn=delta kv=0.22 kva=45.72 pf=1 irrad=0.84 pmpp=45.72 temperature=25 %cutin=0.1 %cutout=0.1 effcurve=MyEff p-tcurve=MyPvsT Daily=MyIrrad TDaily=MyTemp 
New PVSystem.BT93497 bus1=1003002220.1.2.3.4 phases=3 conn=delta kv=0.22 kva=30.48 pf=1 irrad=0.84 pmpp=30.48 temperature=25 %cutin=0.1 %cutout=0.1 effcurve=MyEff p-tcurve=MyPvsT Daily=MyIrrad TDaily=MyTemp 
New PVSystem.BT94042 bus1=1004257229.2.3.4 phases=1 conn=delta kv=0.22 kva=22.86 pf=1 irrad=0.84 pmpp=22.86 temperature=25 %cutin=0.1 %cutout=0.1 effcurve=MyEff p-tcurve=MyPvsT Daily=MyIrrad TDaily=MyTemp 
New PVSystem.BT94043 bus1=1003256488.1.2.4 phases=1 conn=delta kv=0.22 kva=22.86 pf=1 irrad=0.84 pmpp=22.86 temperature=25 %cutin=0.1 %cutout=0.1 effcurve=MyEff p-tcurve=MyPvsT Daily=MyIrrad TDaily=MyTemp 
New PVSystem.BT94074 bus1=1002979225.2.3.4 phases=1 conn=delta kv=0.22 kva=22.86 pf=1 irrad=0.84 pmpp=22.86 temperature=25 %cutin=0.1 %cutout=0.1 effcurve=MyEff p-tcurve=MyPvsT Daily=MyIrrad TDaily=MyTemp 
New PVSystem.BT94102 bus1=1002957343.1.2.3.4 phases=3 conn=delta kv=0.22 kva=15.24 pf=1 irrad=0.84 pmpp=15.24 temperature=25 %cutin=0.1 %cutout=0.1 effcurve=MyEff p-tcurve=MyPvsT Daily=MyIrrad TDaily=MyTemp 
New PVSystem.BT94110 bus1=1002979386.1.2.3.4 phases=3 conn=delta kv=0.22 kva=22.86 pf=1 irrad=0.84 pmpp=22.86 temperature=25 %cutin=0.1 %cutout=0.1 effcurve=MyEff p-tcurve=MyPvsT Daily=MyIrrad TDaily=MyTemp 
New PVSystem.BT94124 bus1=1002993015.2.3.4 phases=1 conn=delta kv=0.22 kva=11.43 pf=1 irrad=0.84 pmpp=11.43 temperature=25 %cutin=0.1 %cutout=0.1 effcurve=MyEff p-tcurve=MyPvsT Daily=MyIrrad TDaily=MyTemp 
New PVSystem.BT94169 bus1=1003267191.1.2.4 phases=1 conn=delta kv=0.22 kva=22.86 pf=1 irrad=0.84 pmpp=22.86 temperature=25 %cutin=0.1 %cutout=0.1 effcurve=MyEff p-tcurve=MyPvsT Daily=MyIrrad TDaily=MyTemp 
New PVSystem.BT94170 bus1=1003267121.1.2.4 phases=1 conn=delta kv=0.22 kva=22.86 pf=1 irrad=0.84 pmpp=22.86 temperature=25 %cutin=0.1 %cutout=0.1 effcurve=MyEff p-tcurve=MyPvsT Daily=MyIrrad TDaily=MyTemp 
New PVSystem.BT94189 bus1=1002979323.2.3.4 phases=1 conn=delta kv=0.22 kva=22.86 pf=1 irrad=0.84 pmpp=22.86 temperature=25 %cutin=0.1 %cutout=0.1 effcurve=MyEff p-tcurve=MyPvsT Daily=MyIrrad TDaily=MyTemp 
New PVSystem.BT94213 bus1=1003266785.1.2.3.4 phases=3 conn=delta kv=0.22 kva=22.86 pf=1 irrad=0.84 pmpp=22.86 temperature=25 %cutin=0.1 %cutout=0.1 effcurve=MyEff p-tcurve=MyPvsT Daily=MyIrrad TDaily=MyTemp 
New PVSystem.BT94215 bus1=1003267135.2.3.4 phases=1 conn=delta kv=0.22 kva=22.86 pf=1 irrad=0.84 pmpp=22.86 temperature=25 %cutin=0.1 %cutout=0.1 effcurve=MyEff p-tcurve=MyPvsT Daily=MyIrrad TDaily=MyTemp 
New PVSystem.BT94228 bus1=1002979176.2.3.4 phases=1 conn=delta kv=0.22 kva=22.86 pf=1 irrad=0.84 pmpp=22.86 temperature=25 %cutin=0.1 %cutout=0.1 effcurve=MyEff p-tcurve=MyPvsT Daily=MyIrrad TDaily=MyTemp 
New PVSystem.BT94229 bus1=1002994940.3.1.4 phases=1 conn=delta kv=0.22 kva=22.86 pf=1 irrad=0.84 pmpp=22.86 temperature=25 %cutin=0.1 %cutout=0.1 effcurve=MyEff p-tcurve=MyPvsT Daily=MyIrrad TDaily=MyTemp 
New PVSystem.BT94284 bus1=1002979197.1.2.3.4 phases=3 conn=delta kv=0.22 kva=22.86 pf=1 irrad=0.84 pmpp=22.86 temperature=25 %cutin=0.1 %cutout=0.1 effcurve=MyEff p-tcurve=MyPvsT Daily=MyIrrad TDaily=MyTemp 
New PVSystem.BT94333 bus1=1002966317.1.2.3.4 phases=3 conn=delta kv=0.22 kva=19.05 pf=1 irrad=0.84 pmpp=19.05 temperature=25 %cutin=0.1 %cutout=0.1 effcurve=MyEff p-tcurve=MyPvsT Daily=MyIrrad TDaily=MyTemp 
New PVSystem.BT94432 bus1=1002961508.2.3.4 phases=1 conn=delta kv=0.22 kva=15.24 pf=1 irrad=0.84 pmpp=15.24 temperature=25 %cutin=0.1 %cutout=0.1 effcurve=MyEff p-tcurve=MyPvsT Daily=MyIrrad TDaily=MyTemp 
New PVSystem.BT94443 bus1=1005241156.1.2.3.4 phases=3 conn=delta kv=0.22 kva=22.86 pf=1 irrad=0.84 pmpp=22.86 temperature=25 %cutin=0.1 %cutout=0.1 effcurve=MyEff p-tcurve=MyPvsT Daily=MyIrrad TDaily=MyTemp 
New PVSystem.BT94465 bus1=1010210598.1.2.3.4 phases=3 conn=delta kv=0.22 kva=26.67 pf=1 irrad=0.84 pmpp=26.67 temperature=25 %cutin=0.1 %cutout=0.1 effcurve=MyEff p-tcurve=MyPvsT Daily=MyIrrad TDaily=MyTemp 
New PVSystem.BT94471 bus1=1005241156.1.2.3.4 phases=3 conn=delta kv=0.22 kva=22.86 pf=1 irrad=0.84 pmpp=22.86 temperature=25 %cutin=0.1 %cutout=0.1 effcurve=MyEff p-tcurve=MyPvsT Daily=MyIrrad TDaily=MyTemp 
New PVSystem.BT94515 bus1=1002974829.2.3.4 phases=1 conn=delta kv=0.22 kva=19.05 pf=1 irrad=0.84 pmpp=19.05 temperature=25 %cutin=0.1 %cutout=0.1 effcurve=MyEff p-tcurve=MyPvsT Daily=MyIrrad TDaily=MyTemp 
New PVSystem.BT94533 bus1=1002974675.2.3.4 phases=1 conn=delta kv=0.22 kva=22.86 pf=1 irrad=0.84 pmpp=22.86 temperature=25 %cutin=0.1 %cutout=0.1 effcurve=MyEff p-tcurve=MyPvsT Daily=MyIrrad TDaily=MyTemp 
New PVSystem.BT94535 bus1=1003017249.3.1.4 phases=1 conn=delta kv=0.22 kva=22.86 pf=1 irrad=0.84 pmpp=22.86 temperature=25 %cutin=0.1 %cutout=0.1 effcurve=MyEff p-tcurve=MyPvsT Daily=MyIrrad TDaily=MyTemp 
New PVSystem.BT94561 bus1=1002961522.3.1.4 phases=1 conn=delta kv=0.22 kva=22.86 pf=1 irrad=0.84 pmpp=22.86 temperature=25 %cutin=0.1 %cutout=0.1 effcurve=MyEff p-tcurve=MyPvsT Daily=MyIrrad TDaily=MyTemp 
New PVSystem.BT94564 bus1=1002984188.1.2.3.4 phases=3 conn=delta kv=0.22 kva=26.67 pf=1 irrad=0.84 pmpp=26.67 temperature=25 %cutin=0.1 %cutout=0.1 effcurve=MyEff p-tcurve=MyPvsT Daily=MyIrrad TDaily=MyTemp 
New PVSystem.BT94567 bus1=1010210598.1.2.3.4 phases=3 conn=delta kv=0.22 kva=26.67 pf=1 irrad=0.84 pmpp=26.67 temperature=25 %cutin=0.1 %cutout=0.1 effcurve=MyEff p-tcurve=MyPvsT Daily=MyIrrad TDaily=MyTemp 
New PVSystem.BT94574 bus1=1002974633.2.3.4 phases=1 conn=delta kv=0.22 kva=15.24 pf=1 irrad=0.84 pmpp=15.24 temperature=25 %cutin=0.1 %cutout=0.1 effcurve=MyEff p-tcurve=MyPvsT Daily=MyIrrad TDaily=MyTemp 
New PVSystem.BT94595 bus1=1003010648.3.1.4 phases=1 conn=delta kv=0.22 kva=22.86 pf=1 irrad=0.84 pmpp=22.86 temperature=25 %cutin=0.1 %cutout=0.1 effcurve=MyEff p-tcurve=MyPvsT Daily=MyIrrad TDaily=MyTemp 
New PVSystem.BT94614 bus1=1002974745.3.1.4 phases=1 conn=delta kv=0.22 kva=22.86 pf=1 irrad=0.84 pmpp=22.86 temperature=25 %cutin=0.1 %cutout=0.1 effcurve=MyEff p-tcurve=MyPvsT Daily=MyIrrad TDaily=MyTemp 
New PVSystem.BT94615 bus1=1004478457.2.3.4 phases=1 conn=delta kv=0.22 kva=22.86 pf=1 irrad=0.84 pmpp=22.86 temperature=25 %cutin=0.1 %cutout=0.1 effcurve=MyEff p-tcurve=MyPvsT Daily=MyIrrad TDaily=MyTemp 
New PVSystem.BT94618 bus1=1002974759.2.3.4 phases=1 conn=delta kv=0.22 kva=22.86 pf=1 irrad=0.84 pmpp=22.86 temperature=25 %cutin=0.1 %cutout=0.1 effcurve=MyEff p-tcurve=MyPvsT Daily=MyIrrad TDaily=MyTemp 
New PVSystem.BT94634 bus1=1004987616.1.2.4 phases=1 conn=delta kv=0.22 kva=22.86 pf=1 irrad=0.84 pmpp=22.86 temperature=25 %cutin=0.1 %cutout=0.1 effcurve=MyEff p-tcurve=MyPvsT Daily=MyIrrad TDaily=MyTemp 
New PVSystem.BT94639 bus1=1002978875.1.2.4 phases=1 conn=delta kv=0.22 kva=22.86 pf=1 irrad=0.84 pmpp=22.86 temperature=25 %cutin=0.1 %cutout=0.1 effcurve=MyEff p-tcurve=MyPvsT Daily=MyIrrad TDaily=MyTemp 
New PVSystem.BT94663 bus1=1010255385.1.2.4 phases=1 conn=delta kv=0.22 kva=22.86 pf=1 irrad=0.84 pmpp=22.86 temperature=25 %cutin=0.1 %cutout=0.1 effcurve=MyEff p-tcurve=MyPvsT Daily=MyIrrad TDaily=MyTemp 
New PVSystem.BT94675 bus1=1004100170.3.1.4 phases=1 conn=delta kv=0.22 kva=22.86 pf=1 irrad=0.84 pmpp=22.86 temperature=25 %cutin=0.1 %cutout=0.1 effcurve=MyEff p-tcurve=MyPvsT Daily=MyIrrad TDaily=MyTemp 
New PVSystem.BT94691 bus1=1002984195.1.2.3.4 phases=3 conn=delta kv=0.22 kva=22.86 pf=1 irrad=0.84 pmpp=22.86 temperature=25 %cutin=0.1 %cutout=0.1 effcurve=MyEff p-tcurve=MyPvsT Daily=MyIrrad TDaily=MyTemp 
New PVSystem.BT94717 bus1=1002966422.1.2.3.4 phases=3 conn=delta kv=0.22 kva=22.86 pf=1 irrad=0.84 pmpp=22.86 temperature=25 %cutin=0.1 %cutout=0.1 effcurve=MyEff p-tcurve=MyPvsT Daily=MyIrrad TDaily=MyTemp 
New PVSystem.BT94880 bus1=1010389605.1.2.3.4 phases=3 conn=delta kv=0.22 kva=38.1 pf=1 irrad=0.84 pmpp=38.1 temperature=25 %cutin=0.1 %cutout=0.1 effcurve=MyEff p-tcurve=MyPvsT Daily=MyIrrad TDaily=MyTemp 
New PVSystem.BT95076 bus1=1005362298.1.2.3.4 phases=3 conn=delta kv=0.22 kva=22.86 pf=1 irrad=0.84 pmpp=22.86 temperature=25 %cutin=0.1 %cutout=0.1 effcurve=MyEff p-tcurve=MyPvsT Daily=MyIrrad TDaily=MyTemp 
New PVSystem.BT95077 bus1=1005362298.1.2.3.4 phases=3 conn=delta kv=0.22 kva=22.86 pf=1 irrad=0.84 pmpp=22.86 temperature=25 %cutin=0.1 %cutout=0.1 effcurve=MyEff p-tcurve=MyPvsT Daily=MyIrrad TDaily=MyTemp 
New PVSystem.BT95079 bus1=1005362298.1.2.3.4 phases=3 conn=delta kv=0.22 kva=22.86 pf=1 irrad=0.84 pmpp=22.86 temperature=25 %cutin=0.1 %cutout=0.1 effcurve=MyEff p-tcurve=MyPvsT Daily=MyIrrad TDaily=MyTemp 
New PVSystem.BT95080 bus1=1005362298.1.2.3.4 phases=3 conn=delta kv=0.22 kva=22.86 pf=1 irrad=0.84 pmpp=22.86 temperature=25 %cutin=0.1 %cutout=0.1 effcurve=MyEff p-tcurve=MyPvsT Daily=MyIrrad TDaily=MyTemp 
New PVSystem.BT95101 bus1=1002966464.1.2.3.4 phases=3 conn=delta kv=0.22 kva=22.86 pf=1 irrad=0.84 pmpp=22.86 temperature=25 %cutin=0.1 %cutout=0.1 effcurve=MyEff p-tcurve=MyPvsT Daily=MyIrrad TDaily=MyTemp 
New PVSystem.BT95173 bus1=1004381542.1.2.3.4 phases=3 conn=delta kv=0.22 kva=22.86 pf=1 irrad=0.84 pmpp=22.86 temperature=25 %cutin=0.1 %cutout=0.1 effcurve=MyEff p-tcurve=MyPvsT Daily=MyIrrad TDaily=MyTemp 
New PVSystem.BT95212 bus1=1005343923.1.2.4 phases=1 conn=delta kv=0.22 kva=22.86 pf=1 irrad=0.84 pmpp=22.86 temperature=25 %cutin=0.1 %cutout=0.1 effcurve=MyEff p-tcurve=MyPvsT Daily=MyIrrad TDaily=MyTemp 
New PVSystem.BT95307 bus1=1003009150.1.2.3.4 phases=3 conn=delta kv=0.22 kva=26.67 pf=1 irrad=0.84 pmpp=26.67 temperature=25 %cutin=0.1 %cutout=0.1 effcurve=MyEff p-tcurve=MyPvsT Daily=MyIrrad TDaily=MyTemp 
New PVSystem.BT95987 bus1=1005005837.1.2.3.4 phases=3 conn=delta kv=0.22 kva=38.1 pf=1 irrad=0.84 pmpp=38.1 temperature=25 %cutin=0.1 %cutout=0.1 effcurve=MyEff p-tcurve=MyPvsT Daily=MyIrrad TDaily=MyTemp 
New PVSystem.BT96047 bus1=1002962082.3.1.4 phases=1 conn=delta kv=0.22 kva=22.86 pf=1 irrad=0.84 pmpp=22.86 temperature=25 %cutin=0.1 %cutout=0.1 effcurve=MyEff p-tcurve=MyPvsT Daily=MyIrrad TDaily=MyTemp 
New PVSystem.BT96087 bus1=1002962103.1.2.4 phases=1 conn=delta kv=0.22 kva=22.86 pf=1 irrad=0.84 pmpp=22.86 temperature=25 %cutin=0.1 %cutout=0.1 effcurve=MyEff p-tcurve=MyPvsT Daily=MyIrrad TDaily=MyTemp 
New PVSystem.BT96099 bus1=1003020700.1.2.3.4 phases=3 conn=delta kv=0.22 kva=22.86 pf=1 irrad=0.84 pmpp=22.86 temperature=25 %cutin=0.1 %cutout=0.1 effcurve=MyEff p-tcurve=MyPvsT Daily=MyIrrad TDaily=MyTemp 
New PVSystem.BT96181 bus1=1005768018.1.2.3.4 phases=3 conn=delta kv=0.22 kva=26.67 pf=1 irrad=0.84 pmpp=26.67 temperature=25 %cutin=0.1 %cutout=0.1 effcurve=MyEff p-tcurve=MyPvsT Daily=MyIrrad TDaily=MyTemp 
New PVSystem.BT96366 bus1=1002996690.1.2.4 phases=1 conn=delta kv=0.22 kva=22.86 pf=1 irrad=0.84 pmpp=22.86 temperature=25 %cutin=0.1 %cutout=0.1 effcurve=MyEff p-tcurve=MyPvsT Daily=MyIrrad TDaily=MyTemp 
New PVSystem.BT96446 bus1=1004164927.1.2.4 phases=1 conn=delta kv=0.22 kva=22.86 pf=1 irrad=0.84 pmpp=22.86 temperature=25 %cutin=0.1 %cutout=0.1 effcurve=MyEff p-tcurve=MyPvsT Daily=MyIrrad TDaily=MyTemp 
New PVSystem.BT96504 bus1=1010886306.1.2.3.4 phases=3 conn=delta kv=0.22 kva=24.003 pf=1 irrad=0.84 pmpp=24.003 temperature=25 %cutin=0.1 %cutout=0.1 effcurve=MyEff p-tcurve=MyPvsT Daily=MyIrrad TDaily=MyTemp 
New PVSystem.BT96515 bus1=1004932575.2.3.4 phases=1 conn=delta kv=0.22 kva=22.86 pf=1 irrad=0.84 pmpp=22.86 temperature=25 %cutin=0.1 %cutout=0.1 effcurve=MyEff p-tcurve=MyPvsT Daily=MyIrrad TDaily=MyTemp 
New PVSystem.BT96516 bus1=1002995787.3.1.4 phases=1 conn=delta kv=0.22 kva=22.86 pf=1 irrad=0.84 pmpp=22.86 temperature=25 %cutin=0.1 %cutout=0.1 effcurve=MyEff p-tcurve=MyPvsT Daily=MyIrrad TDaily=MyTemp 
New PVSystem.BT96536 bus1=1004992964.1.2.4 phases=1 conn=delta kv=0.22 kva=22.86 pf=1 irrad=0.84 pmpp=22.86 temperature=25 %cutin=0.1 %cutout=0.1 effcurve=MyEff p-tcurve=MyPvsT Daily=MyIrrad TDaily=MyTemp 
New PVSystem.BT96554 bus1=1010166298.2.3.4 phases=1 conn=delta kv=0.22 kva=38.1 pf=1 irrad=0.84 pmpp=38.1 temperature=25 %cutin=0.1 %cutout=0.1 effcurve=MyEff p-tcurve=MyPvsT Daily=MyIrrad TDaily=MyTemp 
New PVSystem.BT96560 bus1=1002996543.1.2.3.4 phases=3 conn=delta kv=0.22 kva=22.86 pf=1 irrad=0.84 pmpp=22.86 temperature=25 %cutin=0.1 %cutout=0.1 effcurve=MyEff p-tcurve=MyPvsT Daily=MyIrrad TDaily=MyTemp 
New PVSystem.BT96618 bus1=1004500479.1.2.4 phases=1 conn=delta kv=0.22 kva=22.86 pf=1 irrad=0.84 pmpp=22.86 temperature=25 %cutin=0.1 %cutout=0.1 effcurve=MyEff p-tcurve=MyPvsT Daily=MyIrrad TDaily=MyTemp 
New PVSystem.BT96902 bus1=1003265287.3.1.4 phases=1 conn=delta kv=0.22 kva=22.86 pf=1 irrad=0.84 pmpp=22.86 temperature=25 %cutin=0.1 %cutout=0.1 effcurve=MyEff p-tcurve=MyPvsT Daily=MyIrrad TDaily=MyTemp 
New PVSystem.BT96923 bus1=1003010473.2.3.4 phases=1 conn=delta kv=0.22 kva=22.86 pf=1 irrad=0.84 pmpp=22.86 temperature=25 %cutin=0.1 %cutout=0.1 effcurve=MyEff p-tcurve=MyPvsT Daily=MyIrrad TDaily=MyTemp 
New PVSystem.BT96973 bus1=1002985784.3.1.4 phases=1 conn=delta kv=0.22 kva=22.86 pf=1 irrad=0.84 pmpp=22.86 temperature=25 %cutin=0.1 %cutout=0.1 effcurve=MyEff p-tcurve=MyPvsT Daily=MyIrrad TDaily=MyTemp 
New PVSystem.BT96985 bus1=1002978994.1.2.3.4 phases=3 conn=delta kv=0.22 kva=22.86 pf=1 irrad=0.84 pmpp=22.86 temperature=25 %cutin=0.1 %cutout=0.1 effcurve=MyEff p-tcurve=MyPvsT Daily=MyIrrad TDaily=MyTemp 
New PVSystem.BT97018 bus1=1002966520.3.1.4 phases=1 conn=delta kv=0.22 kva=22.86 pf=1 irrad=0.84 pmpp=22.86 temperature=25 %cutin=0.1 %cutout=0.1 effcurve=MyEff p-tcurve=MyPvsT Daily=MyIrrad TDaily=MyTemp 
New PVSystem.BT97022 bus1=1002966261.1.2.3.4 phases=3 conn=delta kv=0.22 kva=22.86 pf=1 irrad=0.84 pmpp=22.86 temperature=25 %cutin=0.1 %cutout=0.1 effcurve=MyEff p-tcurve=MyPvsT Daily=MyIrrad TDaily=MyTemp 
New PVSystem.BT97036 bus1=1004830998.1.2.3.4 phases=3 conn=delta kv=0.22 kva=22.86 pf=1 irrad=0.84 pmpp=22.86 temperature=25 %cutin=0.1 %cutout=0.1 effcurve=MyEff p-tcurve=MyPvsT Daily=MyIrrad TDaily=MyTemp 
New PVSystem.BT97043 bus1=1002974640.1.2.4 phases=1 conn=delta kv=0.22 kva=26.67 pf=1 irrad=0.84 pmpp=26.67 temperature=25 %cutin=0.1 %cutout=0.1 effcurve=MyEff p-tcurve=MyPvsT Daily=MyIrrad TDaily=MyTemp 
New PVSystem.BT97052 bus1=1002979043.2.3.4 phases=1 conn=delta kv=0.22 kva=19.05 pf=1 irrad=0.84 pmpp=19.05 temperature=25 %cutin=0.1 %cutout=0.1 effcurve=MyEff p-tcurve=MyPvsT Daily=MyIrrad TDaily=MyTemp 
New PVSystem.BT97058 bus1=1002978938.3.1.4 phases=1 conn=delta kv=0.22 kva=22.86 pf=1 irrad=0.84 pmpp=22.86 temperature=25 %cutin=0.1 %cutout=0.1 effcurve=MyEff p-tcurve=MyPvsT Daily=MyIrrad TDaily=MyTemp 
New PVSystem.BT97128 bus1=1002996592.1.2.4 phases=1 conn=delta kv=0.22 kva=22.86 pf=1 irrad=0.84 pmpp=22.86 temperature=25 %cutin=0.1 %cutout=0.1 effcurve=MyEff p-tcurve=MyPvsT Daily=MyIrrad TDaily=MyTemp 
New PVSystem.BT97196 bus1=1006563561.1.2.3.4 phases=3 conn=delta kv=0.22 kva=22.86 pf=1 irrad=0.84 pmpp=22.86 temperature=25 %cutin=0.1 %cutout=0.1 effcurve=MyEff p-tcurve=MyPvsT Daily=MyIrrad TDaily=MyTemp 
New PVSystem.BT97213 bus1=1005346100.1.2.3.4 phases=3 conn=delta kv=0.22 kva=38.1 pf=1 irrad=0.84 pmpp=38.1 temperature=25 %cutin=0.1 %cutout=0.1 effcurve=MyEff p-tcurve=MyPvsT Daily=MyIrrad TDaily=MyTemp 
New PVSystem.BT97224 bus1=1010419853.1.2.3.4 phases=3 conn=delta kv=0.22 kva=38.1 pf=1 irrad=0.84 pmpp=38.1 temperature=25 %cutin=0.1 %cutout=0.1 effcurve=MyEff p-tcurve=MyPvsT Daily=MyIrrad TDaily=MyTemp 
New PVSystem.BT97270 bus1=1003321980.1.2.4 phases=1 conn=delta kv=0.22 kva=22.86 pf=1 irrad=0.84 pmpp=22.86 temperature=25 %cutin=0.1 %cutout=0.1 effcurve=MyEff p-tcurve=MyPvsT Daily=MyIrrad TDaily=MyTemp 
New PVSystem.BT97275 bus1=1010842704.1.2.3.4 phases=3 conn=delta kv=0.22 kva=57.15 pf=1 irrad=0.84 pmpp=57.15 temperature=25 %cutin=0.1 %cutout=0.1 effcurve=MyEff p-tcurve=MyPvsT Daily=MyIrrad TDaily=MyTemp 
New PVSystem.BT97340 bus1=1002904430.1.2.4 phases=1 conn=delta kv=0.22 kva=22.86 pf=1 irrad=0.84 pmpp=22.86 temperature=25 %cutin=0.1 %cutout=0.1 effcurve=MyEff p-tcurve=MyPvsT Daily=MyIrrad TDaily=MyTemp 
New PVSystem.BT97346 bus1=1003321966.3.1.4 phases=1 conn=delta kv=0.22 kva=22.86 pf=1 irrad=0.84 pmpp=22.86 temperature=25 %cutin=0.1 %cutout=0.1 effcurve=MyEff p-tcurve=MyPvsT Daily=MyIrrad TDaily=MyTemp 
New PVSystem.BT97362 bus1=1002985721.1.2.3.4 phases=3 conn=delta kv=0.22 kva=22.86 pf=1 irrad=0.84 pmpp=22.86 temperature=25 %cutin=0.1 %cutout=0.1 effcurve=MyEff p-tcurve=MyPvsT Daily=MyIrrad TDaily=MyTemp 
New PVSystem.BT97383 bus1=1002985728.1.2.3.4 phases=3 conn=delta kv=0.22 kva=22.86 pf=1 irrad=0.84 pmpp=22.86 temperature=25 %cutin=0.1 %cutout=0.1 effcurve=MyEff p-tcurve=MyPvsT Daily=MyIrrad TDaily=MyTemp 
New PVSystem.BT97422 bus1=1004632527.1.2.3.4 phases=3 conn=delta kv=0.22 kva=57.15 pf=1 irrad=0.84 pmpp=57.15 temperature=25 %cutin=0.1 %cutout=0.1 effcurve=MyEff p-tcurve=MyPvsT Daily=MyIrrad TDaily=MyTemp 
New PVSystem.BT97436 bus1=1003011285.1.2.3.4 phases=3 conn=delta kv=0.22 kva=22.86 pf=1 irrad=0.84 pmpp=22.86 temperature=25 %cutin=0.1 %cutout=0.1 effcurve=MyEff p-tcurve=MyPvsT Daily=MyIrrad TDaily=MyTemp 
New PVSystem.BT97488 bus1=1004621768.1.2.4 phases=1 conn=delta kv=0.22 kva=22.86 pf=1 irrad=0.84 pmpp=22.86 temperature=25 %cutin=0.1 %cutout=0.1 effcurve=MyEff p-tcurve=MyPvsT Daily=MyIrrad TDaily=MyTemp 
New PVSystem.BT97496 bus1=1006728250.1.2.3.4 phases=3 conn=delta kv=0.22 kva=22.86 pf=1 irrad=0.84 pmpp=22.86 temperature=25 %cutin=0.1 %cutout=0.1 effcurve=MyEff p-tcurve=MyPvsT Daily=MyIrrad TDaily=MyTemp 
New PVSystem.BT97503 bus1=1002985742.3.1.4 phases=1 conn=delta kv=0.22 kva=22.86 pf=1 irrad=0.84 pmpp=22.86 temperature=25 %cutin=0.1 %cutout=0.1 effcurve=MyEff p-tcurve=MyPvsT Daily=MyIrrad TDaily=MyTemp 
New PVSystem.BT97562 bus1=1003017431.1.2.4 phases=1 conn=delta kv=0.22 kva=22.86 pf=1 irrad=0.84 pmpp=22.86 temperature=25 %cutin=0.1 %cutout=0.1 effcurve=MyEff p-tcurve=MyPvsT Daily=MyIrrad TDaily=MyTemp 
New PVSystem.BT97574 bus1=1003017389.1.2.4 phases=1 conn=delta kv=0.22 kva=22.86 pf=1 irrad=0.84 pmpp=22.86 temperature=25 %cutin=0.1 %cutout=0.1 effcurve=MyEff p-tcurve=MyPvsT Daily=MyIrrad TDaily=MyTemp 
New PVSystem.BT97575 bus1=1010323932.1.2.3.4 phases=3 conn=delta kv=0.22 kva=26.67 pf=1 irrad=0.84 pmpp=26.67 temperature=25 %cutin=0.1 %cutout=0.1 effcurve=MyEff p-tcurve=MyPvsT Daily=MyIrrad TDaily=MyTemp 
New PVSystem.BT97576 bus1=1010323932.1.2.3.4 phases=3 conn=delta kv=0.22 kva=38.1 pf=1 irrad=0.84 pmpp=38.1 temperature=25 %cutin=0.1 %cutout=0.1 effcurve=MyEff p-tcurve=MyPvsT Daily=MyIrrad TDaily=MyTemp 
New PVSystem.BT97806 bus1=1002964007.1.2.4 phases=1 conn=delta kv=0.22 kva=15.24 pf=1 irrad=0.84 pmpp=15.24 temperature=25 %cutin=0.1 %cutout=0.1 effcurve=MyEff p-tcurve=MyPvsT Daily=MyIrrad TDaily=MyTemp 
New PVSystem.BT97856 bus1=1003011131.3.1.4 phases=1 conn=delta kv=0.22 kva=22.86 pf=1 irrad=0.84 pmpp=22.86 temperature=25 %cutin=0.1 %cutout=0.1 effcurve=MyEff p-tcurve=MyPvsT Daily=MyIrrad TDaily=MyTemp 
New PVSystem.BT97862 bus1=1003017221.1.2.4 phases=1 conn=delta kv=0.22 kva=15.24 pf=1 irrad=0.84 pmpp=15.24 temperature=25 %cutin=0.1 %cutout=0.1 effcurve=MyEff p-tcurve=MyPvsT Daily=MyIrrad TDaily=MyTemp 
New PVSystem.BT97904 bus1=1003017214.2.3.4 phases=1 conn=delta kv=0.22 kva=22.86 pf=1 irrad=0.84 pmpp=22.86 temperature=25 %cutin=0.1 %cutout=0.1 effcurve=MyEff p-tcurve=MyPvsT Daily=MyIrrad TDaily=MyTemp 
New PVSystem.BT97910 bus1=1002963986.1.2.3.4 phases=3 conn=delta kv=0.22 kva=22.86 pf=1 irrad=0.84 pmpp=22.86 temperature=25 %cutin=0.1 %cutout=0.1 effcurve=MyEff p-tcurve=MyPvsT Daily=MyIrrad TDaily=MyTemp 
New PVSystem.BT97924 bus1=1003009052.1.2.4 phases=1 conn=delta kv=0.22 kva=22.86 pf=1 irrad=0.84 pmpp=22.86 temperature=25 %cutin=0.1 %cutout=0.1 effcurve=MyEff p-tcurve=MyPvsT Daily=MyIrrad TDaily=MyTemp 
New PVSystem.BT97928 bus1=1003011187.2.3.4 phases=1 conn=delta kv=0.22 kva=22.86 pf=1 irrad=0.84 pmpp=22.86 temperature=25 %cutin=0.1 %cutout=0.1 effcurve=MyEff p-tcurve=MyPvsT Daily=MyIrrad TDaily=MyTemp 
New PVSystem.BT98029 bus1=1003002633.1.2.3.4 phases=3 conn=delta kv=0.22 kva=15.24 pf=1 irrad=0.84 pmpp=15.24 temperature=25 %cutin=0.1 %cutout=0.1 effcurve=MyEff p-tcurve=MyPvsT Daily=MyIrrad TDaily=MyTemp 
New PVSystem.BT98096 bus1=1002870529.2.3.4 phases=1 conn=delta kv=0.22 kva=22.86 pf=1 irrad=0.84 pmpp=22.86 temperature=25 %cutin=0.1 %cutout=0.1 effcurve=MyEff p-tcurve=MyPvsT Daily=MyIrrad TDaily=MyTemp 
New PVSystem.BT98798 bus1=1003267009.1.2.3.4 phases=3 conn=delta kv=0.22 kva=22.86 pf=1 irrad=0.84 pmpp=22.86 temperature=25 %cutin=0.1 %cutout=0.1 effcurve=MyEff p-tcurve=MyPvsT Daily=MyIrrad TDaily=MyTemp 
New PVSystem.BT98830 bus1=1003267653.2.3.4 phases=1 conn=delta kv=0.22 kva=22.86 pf=1 irrad=0.84 pmpp=22.86 temperature=25 %cutin=0.1 %cutout=0.1 effcurve=MyEff p-tcurve=MyPvsT Daily=MyIrrad TDaily=MyTemp 
New PVSystem.BT98832 bus1=1003302646.1.4 phases=1 conn=wye kv=0.127 kva=24.003 pf=1 irrad=0.84 pmpp=24.003 temperature=25 %cutin=0.1 %cutout=0.1 effcurve=MyEff p-tcurve=MyPvsT Daily=MyIrrad TDaily=MyTemp 
New PVSystem.BT98850 bus1=1004278684.1.2.3.4 phases=3 conn=delta kv=0.22 kva=26.67 pf=1 irrad=0.84 pmpp=26.67 temperature=25 %cutin=0.1 %cutout=0.1 effcurve=MyEff p-tcurve=MyPvsT Daily=MyIrrad TDaily=MyTemp 
New PVSystem.BT98853 bus1=1003302730.3.1.4 phases=1 conn=delta kv=0.22 kva=22.86 pf=1 irrad=0.84 pmpp=22.86 temperature=25 %cutin=0.1 %cutout=0.1 effcurve=MyEff p-tcurve=MyPvsT Daily=MyIrrad TDaily=MyTemp 
New PVSystem.BT98890 bus1=1006092118.3.1.4 phases=1 conn=delta kv=0.22 kva=22.86 pf=1 irrad=0.84 pmpp=22.86 temperature=25 %cutin=0.1 %cutout=0.1 effcurve=MyEff p-tcurve=MyPvsT Daily=MyIrrad TDaily=MyTemp 
New PVSystem.BT98918 bus1=1003267170.3.1.4 phases=1 conn=delta kv=0.22 kva=22.86 pf=1 irrad=0.84 pmpp=22.86 temperature=25 %cutin=0.1 %cutout=0.1 effcurve=MyEff p-tcurve=MyPvsT Daily=MyIrrad TDaily=MyTemp 
New PVSystem.BT98919 bus1=1005133090.1.2.4 phases=1 conn=delta kv=0.22 kva=22.86 pf=1 irrad=0.84 pmpp=22.86 temperature=25 %cutin=0.1 %cutout=0.1 effcurve=MyEff p-tcurve=MyPvsT Daily=MyIrrad TDaily=MyTemp 
New PVSystem.BT98927 bus1=1003267023.1.2.4 phases=1 conn=delta kv=0.22 kva=22.86 pf=1 irrad=0.84 pmpp=22.86 temperature=25 %cutin=0.1 %cutout=0.1 effcurve=MyEff p-tcurve=MyPvsT Daily=MyIrrad TDaily=MyTemp 
New PVSystem.BT98931 bus1=1004830634.2.3.4 phases=1 conn=delta kv=0.22 kva=22.86 pf=1 irrad=0.84 pmpp=22.86 temperature=25 %cutin=0.1 %cutout=0.1 effcurve=MyEff p-tcurve=MyPvsT Daily=MyIrrad TDaily=MyTemp 
New PVSystem.BT98932 bus1=1005133167.1.2.4 phases=1 conn=delta kv=0.22 kva=22.86 pf=1 irrad=0.84 pmpp=22.86 temperature=25 %cutin=0.1 %cutout=0.1 effcurve=MyEff p-tcurve=MyPvsT Daily=MyIrrad TDaily=MyTemp 
New PVSystem.BT98933 bus1=1004235536.1.2.3.4 phases=3 conn=delta kv=0.22 kva=22.86 pf=1 irrad=0.84 pmpp=22.86 temperature=25 %cutin=0.1 %cutout=0.1 effcurve=MyEff p-tcurve=MyPvsT Daily=MyIrrad TDaily=MyTemp 
New PVSystem.BT98943 bus1=1003267639.1.2.4 phases=1 conn=delta kv=0.22 kva=22.86 pf=1 irrad=0.84 pmpp=22.86 temperature=25 %cutin=0.1 %cutout=0.1 effcurve=MyEff p-tcurve=MyPvsT Daily=MyIrrad TDaily=MyTemp 
New PVSystem.BT98944 bus1=1005357013.1.2.4 phases=1 conn=delta kv=0.22 kva=22.86 pf=1 irrad=0.84 pmpp=22.86 temperature=25 %cutin=0.1 %cutout=0.1 effcurve=MyEff p-tcurve=MyPvsT Daily=MyIrrad TDaily=MyTemp 
New PVSystem.BT98945 bus1=1005028741.1.2.4 phases=1 conn=delta kv=0.22 kva=47.625 pf=1 irrad=0.84 pmpp=47.625 temperature=25 %cutin=0.1 %cutout=0.1 effcurve=MyEff p-tcurve=MyPvsT Daily=MyIrrad TDaily=MyTemp 
New PVSystem.BT98960 bus1=1004257236.2.3.4 phases=1 conn=delta kv=0.22 kva=24.003 pf=1 irrad=0.84 pmpp=24.003 temperature=25 %cutin=0.1 %cutout=0.1 effcurve=MyEff p-tcurve=MyPvsT Daily=MyIrrad TDaily=MyTemp 
New PVSystem.BT98972 bus1=1005329580.3.1.4 phases=1 conn=delta kv=0.22 kva=22.86 pf=1 irrad=0.84 pmpp=22.86 temperature=25 %cutin=0.1 %cutout=0.1 effcurve=MyEff p-tcurve=MyPvsT Daily=MyIrrad TDaily=MyTemp 
New PVSystem.BT98973 bus1=1004571669.2.3.4 phases=1 conn=delta kv=0.22 kva=22.86 pf=1 irrad=0.84 pmpp=22.86 temperature=25 %cutin=0.1 %cutout=0.1 effcurve=MyEff p-tcurve=MyPvsT Daily=MyIrrad TDaily=MyTemp 
New PVSystem.BT98975 bus1=1010830213.1.2.3.4 phases=3 conn=delta kv=0.22 kva=38.1 pf=1 irrad=0.84 pmpp=38.1 temperature=25 %cutin=0.1 %cutout=0.1 effcurve=MyEff p-tcurve=MyPvsT Daily=MyIrrad TDaily=MyTemp 
New PVSystem.BT98990 bus1=1003266680.3.1.4 phases=1 conn=delta kv=0.22 kva=22.86 pf=1 irrad=0.84 pmpp=22.86 temperature=25 %cutin=0.1 %cutout=0.1 effcurve=MyEff p-tcurve=MyPvsT Daily=MyIrrad TDaily=MyTemp 
New PVSystem.BT99002 bus1=1010497488.1.2.4 phases=1 conn=delta kv=0.22 kva=30.48 pf=1 irrad=0.84 pmpp=30.48 temperature=25 %cutin=0.1 %cutout=0.1 effcurve=MyEff p-tcurve=MyPvsT Daily=MyIrrad TDaily=MyTemp 
New PVSystem.BT99003 bus1=1004894824.2.3.4 phases=1 conn=delta kv=0.22 kva=22.86 pf=1 irrad=0.84 pmpp=22.86 temperature=25 %cutin=0.1 %cutout=0.1 effcurve=MyEff p-tcurve=MyPvsT Daily=MyIrrad TDaily=MyTemp 
New PVSystem.BT99054 bus1=1004776671.2.3.4 phases=1 conn=delta kv=0.22 kva=22.86 pf=1 irrad=0.84 pmpp=22.86 temperature=25 %cutin=0.1 %cutout=0.1 effcurve=MyEff p-tcurve=MyPvsT Daily=MyIrrad TDaily=MyTemp 
New PVSystem.BT99425 bus1=1003302884.1.2.4 phases=1 conn=delta kv=0.22 kva=22.86 pf=1 irrad=0.84 pmpp=22.86 temperature=25 %cutin=0.1 %cutout=0.1 effcurve=MyEff p-tcurve=MyPvsT Daily=MyIrrad TDaily=MyTemp 
New PVSystem.BT99453 bus1=1005976548.2.3.4 phases=1 conn=delta kv=0.22 kva=22.86 pf=1 irrad=0.84 pmpp=22.86 temperature=25 %cutin=0.1 %cutout=0.1 effcurve=MyEff p-tcurve=MyPvsT Daily=MyIrrad TDaily=MyTemp 
New PVSystem.BT99458 bus1=1011027113.1.2.3.4 phases=3 conn=delta kv=0.22 kva=22.86 pf=1 irrad=0.84 pmpp=22.86 temperature=25 %cutin=0.1 %cutout=0.1 effcurve=MyEff p-tcurve=MyPvsT Daily=MyIrrad TDaily=MyTemp 
New PVSystem.BT99486 bus1=1010566375.1.2.3.4 phases=3 conn=delta kv=0.22 kva=22.86 pf=1 irrad=0.84 pmpp=22.86 temperature=25 %cutin=0.1 %cutout=0.1 effcurve=MyEff p-tcurve=MyPvsT Daily=MyIrrad TDaily=MyTemp 
New PVSystem.BT99504 bus1=1005296001.3.1.4 phases=1 conn=delta kv=0.22 kva=22.86 pf=1 irrad=0.84 pmpp=22.86 temperature=25 %cutin=0.1 %cutout=0.1 effcurve=MyEff p-tcurve=MyPvsT Daily=MyIrrad TDaily=MyTemp 
New PVSystem.BT99569 bus1=1004443541.1.2.4 phases=1 conn=delta kv=0.22 kva=22.86 pf=1 irrad=0.84 pmpp=22.86 temperature=25 %cutin=0.1 %cutout=0.1 effcurve=MyEff p-tcurve=MyPvsT Daily=MyIrrad TDaily=MyTemp 
New PVSystem.BT99570 bus1=1005938524.2.3.4 phases=1 conn=delta kv=0.22 kva=22.86 pf=1 irrad=0.84 pmpp=22.86 temperature=25 %cutin=0.1 %cutout=0.1 effcurve=MyEff p-tcurve=MyPvsT Daily=MyIrrad TDaily=MyTemp 
New PVSystem.BT99588 bus1=1005178576.2.3.4 phases=1 conn=delta kv=0.22 kva=22.86 pf=1 irrad=0.84 pmpp=22.86 temperature=25 %cutin=0.1 %cutout=0.1 effcurve=MyEff p-tcurve=MyPvsT Daily=MyIrrad TDaily=MyTemp 
New PVSystem.BT99598 bus1=1004994238.1.2.4 phases=1 conn=delta kv=0.22 kva=22.86 pf=1 irrad=0.84 pmpp=22.86 temperature=25 %cutin=0.1 %cutout=0.1 effcurve=MyEff p-tcurve=MyPvsT Daily=MyIrrad TDaily=MyTemp 
New PVSystem.BT99609 bus1=1005230257.1.2.4 phases=1 conn=delta kv=0.22 kva=22.86 pf=1 irrad=0.84 pmpp=22.86 temperature=25 %cutin=0.1 %cutout=0.1 effcurve=MyEff p-tcurve=MyPvsT Daily=MyIrrad TDaily=MyTemp 
New PVSystem.BT99909 bus1=1005043266.1.2.4 phases=1 conn=delta kv=0.22 kva=22.86 pf=1 irrad=0.84 pmpp=22.86 temperature=25 %cutin=0.1 %cutout=0.1 effcurve=MyEff p-tcurve=MyPvsT Daily=MyIrrad TDaily=MyTemp 
New PVSystem.BT99910 bus1=1010651596.1.2.4 phases=1 conn=delta kv=0.22 kva=22.86 pf=1 irrad=0.84 pmpp=22.86 temperature=25 %cutin=0.1 %cutout=0.1 effcurve=MyEff p-tcurve=MyPvsT Daily=MyIrrad TDaily=MyTemp 
New PVSystem.BT99911 bus1=1006783984.1.2.4 phases=1 conn=delta kv=0.22 kva=22.86 pf=1 irrad=0.84 pmpp=22.86 temperature=25 %cutin=0.1 %cutout=0.1 effcurve=MyEff p-tcurve=MyPvsT Daily=MyIrrad TDaily=MyTemp 
New PVSystem.BT99912 bus1=1005116122.1.2.3.4 phases=3 conn=delta kv=0.22 kva=22.86 pf=1 irrad=0.84 pmpp=22.86 temperature=25 %cutin=0.1 %cutout=0.1 effcurve=MyEff p-tcurve=MyPvsT Daily=MyIrrad TDaily=MyTemp 
New PVSystem.BT99913 bus1=1010701307.3.1.4 phases=1 conn=delta kv=0.22 kva=22.86 pf=1 irrad=0.84 pmpp=22.86 temperature=25 %cutin=0.1 %cutout=0.1 effcurve=MyEff p-tcurve=MyPvsT Daily=MyIrrad TDaily=MyTemp 
New PVSystem.BT99915 bus1=1005041950.1.2.4 phases=1 conn=delta kv=0.22 kva=22.86 pf=1 irrad=0.84 pmpp=22.86 temperature=25 %cutin=0.1 %cutout=0.1 effcurve=MyEff p-tcurve=MyPvsT Daily=MyIrrad TDaily=MyTemp 
New PVSystem.BT99916 bus1=1004648095.2.3.4 phases=1 conn=delta kv=0.22 kva=22.86 pf=1 irrad=0.84 pmpp=22.86 temperature=25 %cutin=0.1 %cutout=0.1 effcurve=MyEff p-tcurve=MyPvsT Daily=MyIrrad TDaily=MyTemp 
New PVSystem.BT99917 bus1=1004518301.1.2.4 phases=1 conn=delta kv=0.22 kva=22.86 pf=1 irrad=0.84 pmpp=22.86 temperature=25 %cutin=0.1 %cutout=0.1 effcurve=MyEff p-tcurve=MyPvsT Daily=MyIrrad TDaily=MyTemp 
New PVSystem.BT99919 bus1=1005230544.2.3.4 phases=1 conn=delta kv=0.22 kva=22.86 pf=1 irrad=0.84 pmpp=22.86 temperature=25 %cutin=0.1 %cutout=0.1 effcurve=MyEff p-tcurve=MyPvsT Daily=MyIrrad TDaily=MyTemp 
New PVSystem.BT99920 bus1=1005306900.3.1.4 phases=1 conn=delta kv=0.22 kva=22.86 pf=1 irrad=0.84 pmpp=22.86 temperature=25 %cutin=0.1 %cutout=0.1 effcurve=MyEff p-tcurve=MyPvsT Daily=MyIrrad TDaily=MyTemp 
New PVSystem.BT99923 bus1=1004942830.1.2.4 phases=1 conn=delta kv=0.22 kva=22.86 pf=1 irrad=0.84 pmpp=22.86 temperature=25 %cutin=0.1 %cutout=0.1 effcurve=MyEff p-tcurve=MyPvsT Daily=MyIrrad TDaily=MyTemp 
New PVSystem.BT99925 bus1=1005012732.3.1.4 phases=1 conn=delta kv=0.22 kva=22.86 pf=1 irrad=0.84 pmpp=22.86 temperature=25 %cutin=0.1 %cutout=0.1 effcurve=MyEff p-tcurve=MyPvsT Daily=MyIrrad TDaily=MyTemp 
New PVSystem.BT99928 bus1=1010159394.3.1.4 phases=1 conn=delta kv=0.22 kva=22.86 pf=1 irrad=0.84 pmpp=22.86 temperature=25 %cutin=0.1 %cutout=0.1 effcurve=MyEff p-tcurve=MyPvsT Daily=MyIrrad TDaily=MyTemp 
New PVSystem.BT99935 bus1=1004534016.1.2.4 phases=1 conn=delta kv=0.22 kva=24.003 pf=1 irrad=0.84 pmpp=24.003 temperature=25 %cutin=0.1 %cutout=0.1 effcurve=MyEff p-tcurve=MyPvsT Daily=MyIrrad TDaily=MyTemp 
New PVSystem.BT99936 bus1=1004987441.1.2.4 phases=1 conn=delta kv=0.22 kva=22.86 pf=1 irrad=0.84 pmpp=22.86 temperature=25 %cutin=0.1 %cutout=0.1 effcurve=MyEff p-tcurve=MyPvsT Daily=MyIrrad TDaily=MyTemp 
New PVSystem.BT99937 bus1=1004980952.1.2.4 phases=1 conn=delta kv=0.22 kva=22.86 pf=1 irrad=0.84 pmpp=22.86 temperature=25 %cutin=0.1 %cutout=0.1 effcurve=MyEff p-tcurve=MyPvsT Daily=MyIrrad TDaily=MyTemp 
New PVSystem.BT99938 bus1=1005058610.3.1.4 phases=1 conn=delta kv=0.22 kva=22.86 pf=1 irrad=0.84 pmpp=22.86 temperature=25 %cutin=0.1 %cutout=0.1 effcurve=MyEff p-tcurve=MyPvsT Daily=MyIrrad TDaily=MyTemp 
New PVSystem.BT99944 bus1=1004584626.1.2.4 phases=1 conn=delta kv=0.22 kva=22.86 pf=1 irrad=0.84 pmpp=22.86 temperature=25 %cutin=0.1 %cutout=0.1 effcurve=MyEff p-tcurve=MyPvsT Daily=MyIrrad TDaily=MyTemp 
New PVSystem.BT99952 bus1=1004918785.2.3.4 phases=1 conn=delta kv=0.22 kva=22.86 pf=1 irrad=0.84 pmpp=22.86 temperature=25 %cutin=0.1 %cutout=0.1 effcurve=MyEff p-tcurve=MyPvsT Daily=MyIrrad TDaily=MyTemp 
New PVSystem.BT99965 bus1=1004829437.3.1.4 phases=1 conn=delta kv=0.22 kva=22.86 pf=1 irrad=0.84 pmpp=22.86 temperature=25 %cutin=0.1 %cutout=0.1 effcurve=MyEff p-tcurve=MyPvsT Daily=MyIrrad TDaily=MyTemp 
New PVSystem.BT99968 bus1=1010684605.1.2.4 phases=1 conn=delta kv=0.22 kva=22.86 pf=1 irrad=0.84 pmpp=22.86 temperature=25 %cutin=0.1 %cutout=0.1 effcurve=MyEff p-tcurve=MyPvsT Daily=MyIrrad TDaily=MyTemp 
New PVSystem.BT100176 bus1=1010665713.1.2.4 phases=1 conn=delta kv=0.22 kva=22.86 pf=1 irrad=0.84 pmpp=22.86 temperature=25 %cutin=0.1 %cutout=0.1 effcurve=MyEff p-tcurve=MyPvsT Daily=MyIrrad TDaily=MyTemp 
New PVSystem.BT100177 bus1=1005813945.2.3.4 phases=1 conn=delta kv=0.22 kva=22.86 pf=1 irrad=0.84 pmpp=22.86 temperature=25 %cutin=0.1 %cutout=0.1 effcurve=MyEff p-tcurve=MyPvsT Daily=MyIrrad TDaily=MyTemp 
New PVSystem.BT100205 bus1=1004999334.1.2.4 phases=1 conn=delta kv=0.22 kva=22.86 pf=1 irrad=0.84 pmpp=22.86 temperature=25 %cutin=0.1 %cutout=0.1 effcurve=MyEff p-tcurve=MyPvsT Daily=MyIrrad TDaily=MyTemp 
New PVSystem.BT100233 bus1=1010363416.3.1.4 phases=1 conn=delta kv=0.22 kva=22.86 pf=1 irrad=0.84 pmpp=22.86 temperature=25 %cutin=0.1 %cutout=0.1 effcurve=MyEff p-tcurve=MyPvsT Daily=MyIrrad TDaily=MyTemp 
New PVSystem.BT100250 bus1=1010159398.2.3.4 phases=1 conn=delta kv=0.22 kva=22.86 pf=1 irrad=0.84 pmpp=22.86 temperature=25 %cutin=0.1 %cutout=0.1 effcurve=MyEff p-tcurve=MyPvsT Daily=MyIrrad TDaily=MyTemp 
New PVSystem.BT100251 bus1=1010105816.3.1.4 phases=1 conn=delta kv=0.22 kva=22.86 pf=1 irrad=0.84 pmpp=22.86 temperature=25 %cutin=0.1 %cutout=0.1 effcurve=MyEff p-tcurve=MyPvsT Daily=MyIrrad TDaily=MyTemp 
New PVSystem.BT100262 bus1=1005073233.1.2.4 phases=1 conn=delta kv=0.22 kva=22.86 pf=1 irrad=0.84 pmpp=22.86 temperature=25 %cutin=0.1 %cutout=0.1 effcurve=MyEff p-tcurve=MyPvsT Daily=MyIrrad TDaily=MyTemp 
New PVSystem.BT100263 bus1=1010217456.3.1.4 phases=1 conn=delta kv=0.22 kva=22.86 pf=1 irrad=0.84 pmpp=22.86 temperature=25 %cutin=0.1 %cutout=0.1 effcurve=MyEff p-tcurve=MyPvsT Daily=MyIrrad TDaily=MyTemp 
New PVSystem.BT182641 bus1=1010974373.2.3.4 phases=1 conn=delta kv=0.22 kva=22.86 pf=1 irrad=0.84 pmpp=22.86 temperature=25 %cutin=0.1 %cutout=0.1 effcurve=MyEff p-tcurve=MyPvsT Daily=MyIrrad TDaily=MyTemp 
New PVSystem.BT182646 bus1=1010105707.2.3.4 phases=1 conn=delta kv=0.22 kva=22.86 pf=1 irrad=0.84 pmpp=22.86 temperature=25 %cutin=0.1 %cutout=0.1 effcurve=MyEff p-tcurve=MyPvsT Daily=MyIrrad TDaily=MyTemp 
New PVSystem.BT182653 bus1=1006521022.2.3.4 phases=1 conn=delta kv=0.22 kva=22.86 pf=1 irrad=0.84 pmpp=22.86 temperature=25 %cutin=0.1 %cutout=0.1 effcurve=MyEff p-tcurve=MyPvsT Daily=MyIrrad TDaily=MyTemp 
New PVSystem.BT182672 bus1=1011415389.1.2.3.4 phases=3 conn=delta kv=0.22 kva=38.1 pf=1 irrad=0.84 pmpp=38.1 temperature=25 %cutin=0.1 %cutout=0.1 effcurve=MyEff p-tcurve=MyPvsT Daily=MyIrrad TDaily=MyTemp 
New PVSystem.BT182766 bus1=1004711830.1.2.3.4 phases=3 conn=delta kv=0.22 kva=26.67 pf=1 irrad=0.84 pmpp=26.67 temperature=25 %cutin=0.1 %cutout=0.1 effcurve=MyEff p-tcurve=MyPvsT Daily=MyIrrad TDaily=MyTemp 
New PVSystem.BT182775 bus1=1002994485.1.2.4 phases=1 conn=delta kv=0.22 kva=22.86 pf=1 irrad=0.84 pmpp=22.86 temperature=25 %cutin=0.1 %cutout=0.1 effcurve=MyEff p-tcurve=MyPvsT Daily=MyIrrad TDaily=MyTemp 
New PVSystem.BT182776 bus1=1002994492.2.3.4 phases=1 conn=delta kv=0.22 kva=22.86 pf=1 irrad=0.84 pmpp=22.86 temperature=25 %cutin=0.1 %cutout=0.1 effcurve=MyEff p-tcurve=MyPvsT Daily=MyIrrad TDaily=MyTemp 
New PVSystem.BT182777 bus1=1002994324.1.2.3.4 phases=3 conn=delta kv=0.22 kva=45.72 pf=1 irrad=0.84 pmpp=45.72 temperature=25 %cutin=0.1 %cutout=0.1 effcurve=MyEff p-tcurve=MyPvsT Daily=MyIrrad TDaily=MyTemp 
New PVSystem.BT183159 bus1=1002993022.1.2.4 phases=1 conn=delta kv=0.22 kva=19.05 pf=1 irrad=0.84 pmpp=19.05 temperature=25 %cutin=0.1 %cutout=0.1 effcurve=MyEff p-tcurve=MyPvsT Daily=MyIrrad TDaily=MyTemp 
New PVSystem.BT183163 bus1=1002961312.1.2.4 phases=1 conn=delta kv=0.22 kva=5.715 pf=1 irrad=0.84 pmpp=5.715 temperature=25 %cutin=0.1 %cutout=0.1 effcurve=MyEff p-tcurve=MyPvsT Daily=MyIrrad TDaily=MyTemp 
New PVSystem.BT183164 bus1=1004942872.3.1.4 phases=1 conn=delta kv=0.22 kva=22.86 pf=1 irrad=0.84 pmpp=22.86 temperature=25 %cutin=0.1 %cutout=0.1 effcurve=MyEff p-tcurve=MyPvsT Daily=MyIrrad TDaily=MyTemp 
New PVSystem.BT183175 bus1=1002993050.1.2.4 phases=1 conn=delta kv=0.22 kva=22.86 pf=1 irrad=0.84 pmpp=22.86 temperature=25 %cutin=0.1 %cutout=0.1 effcurve=MyEff p-tcurve=MyPvsT Daily=MyIrrad TDaily=MyTemp 
New PVSystem.BT183188 bus1=1002992994.1.2.4 phases=1 conn=delta kv=0.22 kva=22.86 pf=1 irrad=0.84 pmpp=22.86 temperature=25 %cutin=0.1 %cutout=0.1 effcurve=MyEff p-tcurve=MyPvsT Daily=MyIrrad TDaily=MyTemp 
New PVSystem.BT184033 bus1=1010593851.1.2.3.4 phases=3 conn=delta kv=0.22 kva=22.86 pf=1 irrad=0.84 pmpp=22.86 temperature=25 %cutin=0.1 %cutout=0.1 effcurve=MyEff p-tcurve=MyPvsT Daily=MyIrrad TDaily=MyTemp 
New PVSystem.BT184034 bus1=1010593851.1.2.3.4 phases=3 conn=delta kv=0.22 kva=22.86 pf=1 irrad=0.84 pmpp=22.86 temperature=25 %cutin=0.1 %cutout=0.1 effcurve=MyEff p-tcurve=MyPvsT Daily=MyIrrad TDaily=MyTemp 
New PVSystem.BT184035 bus1=1010593851.1.2.3.4 phases=3 conn=delta kv=0.22 kva=22.86 pf=1 irrad=0.84 pmpp=22.86 temperature=25 %cutin=0.1 %cutout=0.1 effcurve=MyEff p-tcurve=MyPvsT Daily=MyIrrad TDaily=MyTemp 
New PVSystem.BT184036 bus1=1010593851.1.2.3.4 phases=3 conn=delta kv=0.22 kva=22.86 pf=1 irrad=0.84 pmpp=22.86 temperature=25 %cutin=0.1 %cutout=0.1 effcurve=MyEff p-tcurve=MyPvsT Daily=MyIrrad TDaily=MyTemp 
New PVSystem.BT184037 bus1=1010593851.1.2.3.4 phases=3 conn=delta kv=0.22 kva=22.86 pf=1 irrad=0.84 pmpp=22.86 temperature=25 %cutin=0.1 %cutout=0.1 effcurve=MyEff p-tcurve=MyPvsT Daily=MyIrrad TDaily=MyTemp 
New PVSystem.BT184038 bus1=1010593851.1.2.3.4 phases=3 conn=delta kv=0.22 kva=22.86 pf=1 irrad=0.84 pmpp=22.86 temperature=25 %cutin=0.1 %cutout=0.1 effcurve=MyEff p-tcurve=MyPvsT Daily=MyIrrad TDaily=MyTemp 
New PVSystem.BT184039 bus1=1010593851.1.2.3.4 phases=3 conn=delta kv=0.22 kva=22.86 pf=1 irrad=0.84 pmpp=22.86 temperature=25 %cutin=0.1 %cutout=0.1 effcurve=MyEff p-tcurve=MyPvsT Daily=MyIrrad TDaily=MyTemp 
New PVSystem.BT184040 bus1=1010593851.1.2.3.4 phases=3 conn=delta kv=0.22 kva=22.86 pf=1 irrad=0.84 pmpp=22.86 temperature=25 %cutin=0.1 %cutout=0.1 effcurve=MyEff p-tcurve=MyPvsT Daily=MyIrrad TDaily=MyTemp 
New PVSystem.BT184041 bus1=1010593851.1.2.3.4 phases=3 conn=delta kv=0.22 kva=22.86 pf=1 irrad=0.84 pmpp=22.86 temperature=25 %cutin=0.1 %cutout=0.1 effcurve=MyEff p-tcurve=MyPvsT Daily=MyIrrad TDaily=MyTemp 
New PVSystem.BT184042 bus1=1010593851.1.2.3.4 phases=3 conn=delta kv=0.22 kva=22.86 pf=1 irrad=0.84 pmpp=22.86 temperature=25 %cutin=0.1 %cutout=0.1 effcurve=MyEff p-tcurve=MyPvsT Daily=MyIrrad TDaily=MyTemp 
New PVSystem.BT184043 bus1=1010593851.1.2.3.4 phases=3 conn=delta kv=0.22 kva=22.86 pf=1 irrad=0.84 pmpp=22.86 temperature=25 %cutin=0.1 %cutout=0.1 effcurve=MyEff p-tcurve=MyPvsT Daily=MyIrrad TDaily=MyTemp 
New PVSystem.BT184044 bus1=1010593851.1.2.3.4 phases=3 conn=delta kv=0.22 kva=22.86 pf=1 irrad=0.84 pmpp=22.86 temperature=25 %cutin=0.1 %cutout=0.1 effcurve=MyEff p-tcurve=MyPvsT Daily=MyIrrad TDaily=MyTemp 
New PVSystem.BT184045 bus1=1010593851.1.2.3.4 phases=3 conn=delta kv=0.22 kva=22.86 pf=1 irrad=0.84 pmpp=22.86 temperature=25 %cutin=0.1 %cutout=0.1 effcurve=MyEff p-tcurve=MyPvsT Daily=MyIrrad TDaily=MyTemp 
New PVSystem.BT184046 bus1=1010593851.1.2.3.4 phases=3 conn=delta kv=0.22 kva=22.86 pf=1 irrad=0.84 pmpp=22.86 temperature=25 %cutin=0.1 %cutout=0.1 effcurve=MyEff p-tcurve=MyPvsT Daily=MyIrrad TDaily=MyTemp 
New PVSystem.BT184047 bus1=1010593851.1.2.3.4 phases=3 conn=delta kv=0.22 kva=22.86 pf=1 irrad=0.84 pmpp=22.86 temperature=25 %cutin=0.1 %cutout=0.1 effcurve=MyEff p-tcurve=MyPvsT Daily=MyIrrad TDaily=MyTemp 
New PVSystem.BT184048 bus1=1010593851.1.2.3.4 phases=3 conn=delta kv=0.22 kva=22.86 pf=1 irrad=0.84 pmpp=22.86 temperature=25 %cutin=0.1 %cutout=0.1 effcurve=MyEff p-tcurve=MyPvsT Daily=MyIrrad TDaily=MyTemp 
New PVSystem.BT184049 bus1=1010593851.1.2.3.4 phases=3 conn=delta kv=0.22 kva=22.86 pf=1 irrad=0.84 pmpp=22.86 temperature=25 %cutin=0.1 %cutout=0.1 effcurve=MyEff p-tcurve=MyPvsT Daily=MyIrrad TDaily=MyTemp 
New PVSystem.BT184050 bus1=1010593851.1.2.3.4 phases=3 conn=delta kv=0.22 kva=22.86 pf=1 irrad=0.84 pmpp=22.86 temperature=25 %cutin=0.1 %cutout=0.1 effcurve=MyEff p-tcurve=MyPvsT Daily=MyIrrad TDaily=MyTemp 
New PVSystem.BT184051 bus1=1010593851.1.2.3.4 phases=3 conn=delta kv=0.22 kva=22.86 pf=1 irrad=0.84 pmpp=22.86 temperature=25 %cutin=0.1 %cutout=0.1 effcurve=MyEff p-tcurve=MyPvsT Daily=MyIrrad TDaily=MyTemp 
New PVSystem.BT184054 bus1=1010710044.1.2.3.4 phases=3 conn=delta kv=0.22 kva=22.86 pf=1 irrad=0.84 pmpp=22.86 temperature=25 %cutin=0.1 %cutout=0.1 effcurve=MyEff p-tcurve=MyPvsT Daily=MyIrrad TDaily=MyTemp 
New PVSystem.BT184063 bus1=1010593851.1.2.3.4 phases=3 conn=delta kv=0.22 kva=22.86 pf=1 irrad=0.84 pmpp=22.86 temperature=25 %cutin=0.1 %cutout=0.1 effcurve=MyEff p-tcurve=MyPvsT Daily=MyIrrad TDaily=MyTemp 
New PVSystem.BT184064 bus1=1010710061.1.2.3.4 phases=3 conn=delta kv=0.22 kva=22.86 pf=1 irrad=0.84 pmpp=22.86 temperature=25 %cutin=0.1 %cutout=0.1 effcurve=MyEff p-tcurve=MyPvsT Daily=MyIrrad TDaily=MyTemp 
New PVSystem.BT184065 bus1=1010710056.1.2.3.4 phases=3 conn=delta kv=0.22 kva=22.86 pf=1 irrad=0.84 pmpp=22.86 temperature=25 %cutin=0.1 %cutout=0.1 effcurve=MyEff p-tcurve=MyPvsT Daily=MyIrrad TDaily=MyTemp 
New PVSystem.BT184075 bus1=1010710076.1.2.3.4 phases=3 conn=delta kv=0.22 kva=22.86 pf=1 irrad=0.84 pmpp=22.86 temperature=25 %cutin=0.1 %cutout=0.1 effcurve=MyEff p-tcurve=MyPvsT Daily=MyIrrad TDaily=MyTemp 
New PVSystem.BT184098 bus1=1010710035.1.2.3.4 phases=3 conn=delta kv=0.22 kva=22.86 pf=1 irrad=0.84 pmpp=22.86 temperature=25 %cutin=0.1 %cutout=0.1 effcurve=MyEff p-tcurve=MyPvsT Daily=MyIrrad TDaily=MyTemp 
New PVSystem.BT184099 bus1=1010710082.1.2.3.4 phases=3 conn=delta kv=0.22 kva=22.86 pf=1 irrad=0.84 pmpp=22.86 temperature=25 %cutin=0.1 %cutout=0.1 effcurve=MyEff p-tcurve=MyPvsT Daily=MyIrrad TDaily=MyTemp 
New PVSystem.BT184100 bus1=1010710079.1.2.3.4 phases=3 conn=delta kv=0.22 kva=22.86 pf=1 irrad=0.84 pmpp=22.86 temperature=25 %cutin=0.1 %cutout=0.1 effcurve=MyEff p-tcurve=MyPvsT Daily=MyIrrad TDaily=MyTemp 
New PVSystem.BT184101 bus1=1010710041.1.2.3.4 phases=3 conn=delta kv=0.22 kva=22.86 pf=1 irrad=0.84 pmpp=22.86 temperature=25 %cutin=0.1 %cutout=0.1 effcurve=MyEff p-tcurve=MyPvsT Daily=MyIrrad TDaily=MyTemp 
New PVSystem.BT184128 bus1=1010710046.1.2.3.4 phases=3 conn=delta kv=0.22 kva=22.86 pf=1 irrad=0.84 pmpp=22.86 temperature=25 %cutin=0.1 %cutout=0.1 effcurve=MyEff p-tcurve=MyPvsT Daily=MyIrrad TDaily=MyTemp 
New PVSystem.BT184138 bus1=1010710029.1.2.3.4 phases=3 conn=delta kv=0.22 kva=22.86 pf=1 irrad=0.84 pmpp=22.86 temperature=25 %cutin=0.1 %cutout=0.1 effcurve=MyEff p-tcurve=MyPvsT Daily=MyIrrad TDaily=MyTemp 
New PVSystem.BT184139 bus1=1010710043.1.2.3.4 phases=3 conn=delta kv=0.22 kva=22.86 pf=1 irrad=0.84 pmpp=22.86 temperature=25 %cutin=0.1 %cutout=0.1 effcurve=MyEff p-tcurve=MyPvsT Daily=MyIrrad TDaily=MyTemp 
New PVSystem.BT184142 bus1=1010710014.1.2.3.4 phases=3 conn=delta kv=0.22 kva=22.86 pf=1 irrad=0.84 pmpp=22.86 temperature=25 %cutin=0.1 %cutout=0.1 effcurve=MyEff p-tcurve=MyPvsT Daily=MyIrrad TDaily=MyTemp 
New PVSystem.BT184146 bus1=1010710058.1.2.3.4 phases=3 conn=delta kv=0.22 kva=22.86 pf=1 irrad=0.84 pmpp=22.86 temperature=25 %cutin=0.1 %cutout=0.1 effcurve=MyEff p-tcurve=MyPvsT Daily=MyIrrad TDaily=MyTemp 
New PVSystem.BT184147 bus1=1010710052.1.2.3.4 phases=3 conn=delta kv=0.22 kva=22.86 pf=1 irrad=0.84 pmpp=22.86 temperature=25 %cutin=0.1 %cutout=0.1 effcurve=MyEff p-tcurve=MyPvsT Daily=MyIrrad TDaily=MyTemp 
New PVSystem.BT184157 bus1=1010710077.1.2.3.4 phases=3 conn=delta kv=0.22 kva=22.86 pf=1 irrad=0.84 pmpp=22.86 temperature=25 %cutin=0.1 %cutout=0.1 effcurve=MyEff p-tcurve=MyPvsT Daily=MyIrrad TDaily=MyTemp 
New PVSystem.BT184162 bus1=1010710095.1.2.3.4 phases=3 conn=delta kv=0.22 kva=22.86 pf=1 irrad=0.84 pmpp=22.86 temperature=25 %cutin=0.1 %cutout=0.1 effcurve=MyEff p-tcurve=MyPvsT Daily=MyIrrad TDaily=MyTemp 
New PVSystem.BT184163 bus1=1010710032.1.2.3.4 phases=3 conn=delta kv=0.22 kva=22.86 pf=1 irrad=0.84 pmpp=22.86 temperature=25 %cutin=0.1 %cutout=0.1 effcurve=MyEff p-tcurve=MyPvsT Daily=MyIrrad TDaily=MyTemp 
New PVSystem.BT184169 bus1=1010710070.1.2.3.4 phases=3 conn=delta kv=0.22 kva=22.86 pf=1 irrad=0.84 pmpp=22.86 temperature=25 %cutin=0.1 %cutout=0.1 effcurve=MyEff p-tcurve=MyPvsT Daily=MyIrrad TDaily=MyTemp 
New PVSystem.BT184170 bus1=1010710085.1.2.3.4 phases=3 conn=delta kv=0.22 kva=22.86 pf=1 irrad=0.84 pmpp=22.86 temperature=25 %cutin=0.1 %cutout=0.1 effcurve=MyEff p-tcurve=MyPvsT Daily=MyIrrad TDaily=MyTemp 
New PVSystem.BT184172 bus1=1010710096.1.2.3.4 phases=3 conn=delta kv=0.22 kva=22.86 pf=1 irrad=0.84 pmpp=22.86 temperature=25 %cutin=0.1 %cutout=0.1 effcurve=MyEff p-tcurve=MyPvsT Daily=MyIrrad TDaily=MyTemp 
New PVSystem.BT184173 bus1=1010710025.1.2.3.4 phases=3 conn=delta kv=0.22 kva=22.86 pf=1 irrad=0.84 pmpp=22.86 temperature=25 %cutin=0.1 %cutout=0.1 effcurve=MyEff p-tcurve=MyPvsT Daily=MyIrrad TDaily=MyTemp 
New PVSystem.BT184174 bus1=1010710069.1.2.3.4 phases=3 conn=delta kv=0.22 kva=22.86 pf=1 irrad=0.84 pmpp=22.86 temperature=25 %cutin=0.1 %cutout=0.1 effcurve=MyEff p-tcurve=MyPvsT Daily=MyIrrad TDaily=MyTemp 
New PVSystem.BT184181 bus1=1010710086.1.2.3.4 phases=3 conn=delta kv=0.22 kva=22.86 pf=1 irrad=0.84 pmpp=22.86 temperature=25 %cutin=0.1 %cutout=0.1 effcurve=MyEff p-tcurve=MyPvsT Daily=MyIrrad TDaily=MyTemp 
New PVSystem.BT184183 bus1=1010710051.1.2.3.4 phases=3 conn=delta kv=0.22 kva=22.86 pf=1 irrad=0.84 pmpp=22.86 temperature=25 %cutin=0.1 %cutout=0.1 effcurve=MyEff p-tcurve=MyPvsT Daily=MyIrrad TDaily=MyTemp 
New PVSystem.BT184192 bus1=1010710084.1.2.3.4 phases=3 conn=delta kv=0.22 kva=22.86 pf=1 irrad=0.84 pmpp=22.86 temperature=25 %cutin=0.1 %cutout=0.1 effcurve=MyEff p-tcurve=MyPvsT Daily=MyIrrad TDaily=MyTemp 
New PVSystem.BT184376 bus1=1010650368.1.2.3.4 phases=3 conn=delta kv=0.22 kva=22.86 pf=1 irrad=0.84 pmpp=22.86 temperature=25 %cutin=0.1 %cutout=0.1 effcurve=MyEff p-tcurve=MyPvsT Daily=MyIrrad TDaily=MyTemp 
New PVSystem.BT184524 bus1=1011016507.1.2.4 phases=1 conn=delta kv=0.22 kva=24.003 pf=1 irrad=0.84 pmpp=24.003 temperature=25 %cutin=0.1 %cutout=0.1 effcurve=MyEff p-tcurve=MyPvsT Daily=MyIrrad TDaily=MyTemp 
New PVSystem.BT184539 bus1=1011047100.1.2.4 phases=1 conn=delta kv=0.22 kva=24.003 pf=1 irrad=0.84 pmpp=24.003 temperature=25 %cutin=0.1 %cutout=0.1 effcurve=MyEff p-tcurve=MyPvsT Daily=MyIrrad TDaily=MyTemp 
New PVSystem.BT184540 bus1=1010987003.1.2.3.4 phases=3 conn=delta kv=0.22 kva=57.15 pf=1 irrad=0.84 pmpp=57.15 temperature=25 %cutin=0.1 %cutout=0.1 effcurve=MyEff p-tcurve=MyPvsT Daily=MyIrrad TDaily=MyTemp 
New PVSystem.BT184543 bus1=1011115589.1.2.3.4 phases=3 conn=delta kv=0.22 kva=24.003 pf=1 irrad=0.84 pmpp=24.003 temperature=25 %cutin=0.1 %cutout=0.1 effcurve=MyEff p-tcurve=MyPvsT Daily=MyIrrad TDaily=MyTemp 
New PVSystem.BT184544 bus1=1011288989.1.2.3.4 phases=3 conn=delta kv=0.22 kva=38.1 pf=1 irrad=0.84 pmpp=38.1 temperature=25 %cutin=0.1 %cutout=0.1 effcurve=MyEff p-tcurve=MyPvsT Daily=MyIrrad TDaily=MyTemp 
New PVSystem.BT184546 bus1=1011178588.1.2.3.4 phases=3 conn=delta kv=0.22 kva=24.003 pf=1 irrad=0.84 pmpp=24.003 temperature=25 %cutin=0.1 %cutout=0.1 effcurve=MyEff p-tcurve=MyPvsT Daily=MyIrrad TDaily=MyTemp 
New PVSystem.BT184547 bus1=1011471813.1.2.3.4 phases=3 conn=delta kv=0.22 kva=24.003 pf=1 irrad=0.84 pmpp=24.003 temperature=25 %cutin=0.1 %cutout=0.1 effcurve=MyEff p-tcurve=MyPvsT Daily=MyIrrad TDaily=MyTemp 
New PVSystem.BT184555 bus1=1011421591.1.2.3.4 phases=3 conn=delta kv=0.22 kva=30.48 pf=1 irrad=0.84 pmpp=30.48 temperature=25 %cutin=0.1 %cutout=0.1 effcurve=MyEff p-tcurve=MyPvsT Daily=MyIrrad TDaily=MyTemp 
New PVSystem.BT184556 bus1=1011016679.1.2.3.4 phases=3 conn=delta kv=0.22 kva=24.003 pf=1 irrad=0.84 pmpp=24.003 temperature=25 %cutin=0.1 %cutout=0.1 effcurve=MyEff p-tcurve=MyPvsT Daily=MyIrrad TDaily=MyTemp 
New PVSystem.BT184557 bus1=1011414036.1.2.3.4 phases=3 conn=delta kv=0.22 kva=30.48 pf=1 irrad=0.84 pmpp=30.48 temperature=25 %cutin=0.1 %cutout=0.1 effcurve=MyEff p-tcurve=MyPvsT Daily=MyIrrad TDaily=MyTemp 
New PVSystem.BT184559 bus1=1011208447.1.2.4 phases=1 conn=delta kv=0.22 kva=24.003 pf=1 irrad=0.84 pmpp=24.003 temperature=25 %cutin=0.1 %cutout=0.1 effcurve=MyEff p-tcurve=MyPvsT Daily=MyIrrad TDaily=MyTemp 
New PVSystem.BT184561 bus1=1011249972.1.2.4 phases=1 conn=delta kv=0.22 kva=24.003 pf=1 irrad=0.84 pmpp=24.003 temperature=25 %cutin=0.1 %cutout=0.1 effcurve=MyEff p-tcurve=MyPvsT Daily=MyIrrad TDaily=MyTemp 
New PVSystem.BT184575 bus1=1011336612.1.2.3.4 phases=3 conn=delta kv=0.22 kva=76.2 pf=1 irrad=0.84 pmpp=76.2 temperature=25 %cutin=0.1 %cutout=0.1 effcurve=MyEff p-tcurve=MyPvsT Daily=MyIrrad TDaily=MyTemp 
New PVSystem.BT184577 bus1=1011376693.1.2.4 phases=1 conn=delta kv=0.22 kva=38.1 pf=1 irrad=0.84 pmpp=38.1 temperature=25 %cutin=0.1 %cutout=0.1 effcurve=MyEff p-tcurve=MyPvsT Daily=MyIrrad TDaily=MyTemp 
New PVSystem.BT184578 bus1=1011328361.1.2.3.4 phases=3 conn=delta kv=0.22 kva=30.48 pf=1 irrad=0.84 pmpp=30.48 temperature=25 %cutin=0.1 %cutout=0.1 effcurve=MyEff p-tcurve=MyPvsT Daily=MyIrrad TDaily=MyTemp 
New PVSystem.BT184583 bus1=1011163662.1.2.3.4 phases=3 conn=delta kv=0.22 kva=30.48 pf=1 irrad=0.84 pmpp=30.48 temperature=25 %cutin=0.1 %cutout=0.1 effcurve=MyEff p-tcurve=MyPvsT Daily=MyIrrad TDaily=MyTemp 
New PVSystem.BT184584 bus1=1011046631.1.2.3.4 phases=3 conn=delta kv=0.22 kva=24.003 pf=1 irrad=0.84 pmpp=24.003 temperature=25 %cutin=0.1 %cutout=0.1 effcurve=MyEff p-tcurve=MyPvsT Daily=MyIrrad TDaily=MyTemp 
New PVSystem.BT184587 bus1=1011046365.1.2.4 phases=1 conn=delta kv=0.22 kva=24.003 pf=1 irrad=0.84 pmpp=24.003 temperature=25 %cutin=0.1 %cutout=0.1 effcurve=MyEff p-tcurve=MyPvsT Daily=MyIrrad TDaily=MyTemp 
New PVSystem.BT184588 bus1=1011396618.1.2.3.4 phases=3 conn=delta kv=0.22 kva=38.1 pf=1 irrad=0.84 pmpp=38.1 temperature=25 %cutin=0.1 %cutout=0.1 effcurve=MyEff p-tcurve=MyPvsT Daily=MyIrrad TDaily=MyTemp 
New PVSystem.BT184590 bus1=1011308601.1.2.3.4 phases=3 conn=delta kv=0.22 kva=38.1 pf=1 irrad=0.84 pmpp=38.1 temperature=25 %cutin=0.1 %cutout=0.1 effcurve=MyEff p-tcurve=MyPvsT Daily=MyIrrad TDaily=MyTemp 
New PVSystem.BT184591 bus1=1011046630.1.2.3.4 phases=3 conn=delta kv=0.22 kva=30.48 pf=1 irrad=0.84 pmpp=30.48 temperature=25 %cutin=0.1 %cutout=0.1 effcurve=MyEff p-tcurve=MyPvsT Daily=MyIrrad TDaily=MyTemp 
New PVSystem.BT184594 bus1=1011020065.1.2.3.4 phases=3 conn=delta kv=0.22 kva=38.1 pf=1 irrad=0.84 pmpp=38.1 temperature=25 %cutin=0.1 %cutout=0.1 effcurve=MyEff p-tcurve=MyPvsT Daily=MyIrrad TDaily=MyTemp 
New PVSystem.BT184628 bus1=1011373790.1.2.3.4 phases=3 conn=delta kv=0.22 kva=47.625 pf=1 irrad=0.84 pmpp=47.625 temperature=25 %cutin=0.1 %cutout=0.1 effcurve=MyEff p-tcurve=MyPvsT Daily=MyIrrad TDaily=MyTemp 
New PVSystem.BT184711 bus1=1010391012.1.2.3.4 phases=3 conn=delta kv=0.22 kva=22.86 pf=1 irrad=0.84 pmpp=22.86 temperature=25 %cutin=0.1 %cutout=0.1 effcurve=MyEff p-tcurve=MyPvsT Daily=MyIrrad TDaily=MyTemp 
New PVSystem.BT184712 bus1=1010391012.1.2.3.4 phases=3 conn=delta kv=0.22 kva=22.86 pf=1 irrad=0.84 pmpp=22.86 temperature=25 %cutin=0.1 %cutout=0.1 effcurve=MyEff p-tcurve=MyPvsT Daily=MyIrrad TDaily=MyTemp 
New PVSystem.BT184713 bus1=1010391012.1.2.3.4 phases=3 conn=delta kv=0.22 kva=24.003 pf=1 irrad=0.84 pmpp=24.003 temperature=25 %cutin=0.1 %cutout=0.1 effcurve=MyEff p-tcurve=MyPvsT Daily=MyIrrad TDaily=MyTemp 
New PVSystem.BT184714 bus1=1010391012.1.2.3.4 phases=3 conn=delta kv=0.22 kva=22.86 pf=1 irrad=0.84 pmpp=22.86 temperature=25 %cutin=0.1 %cutout=0.1 effcurve=MyEff p-tcurve=MyPvsT Daily=MyIrrad TDaily=MyTemp 
New PVSystem.BT184716 bus1=1011109528.1.2.4 phases=1 conn=delta kv=0.22 kva=22.86 pf=1 irrad=0.84 pmpp=22.86 temperature=25 %cutin=0.1 %cutout=0.1 effcurve=MyEff p-tcurve=MyPvsT Daily=MyIrrad TDaily=MyTemp 
New PVSystem.BT184718 bus1=1010391012.1.2.3.4 phases=3 conn=delta kv=0.22 kva=22.86 pf=1 irrad=0.84 pmpp=22.86 temperature=25 %cutin=0.1 %cutout=0.1 effcurve=MyEff p-tcurve=MyPvsT Daily=MyIrrad TDaily=MyTemp 
New PVSystem.BT184719 bus1=1010391012.1.2.3.4 phases=3 conn=delta kv=0.22 kva=22.86 pf=1 irrad=0.84 pmpp=22.86 temperature=25 %cutin=0.1 %cutout=0.1 effcurve=MyEff p-tcurve=MyPvsT Daily=MyIrrad TDaily=MyTemp 
New PVSystem.BT184720 bus1=1010391012.1.2.3.4 phases=3 conn=delta kv=0.22 kva=24.003 pf=1 irrad=0.84 pmpp=24.003 temperature=25 %cutin=0.1 %cutout=0.1 effcurve=MyEff p-tcurve=MyPvsT Daily=MyIrrad TDaily=MyTemp 
New PVSystem.BT184721 bus1=1010391012.1.2.3.4 phases=3 conn=delta kv=0.22 kva=22.86 pf=1 irrad=0.84 pmpp=22.86 temperature=25 %cutin=0.1 %cutout=0.1 effcurve=MyEff p-tcurve=MyPvsT Daily=MyIrrad TDaily=MyTemp 
New PVSystem.BT184722 bus1=1010391012.1.2.3.4 phases=3 conn=delta kv=0.22 kva=22.86 pf=1 irrad=0.84 pmpp=22.86 temperature=25 %cutin=0.1 %cutout=0.1 effcurve=MyEff p-tcurve=MyPvsT Daily=MyIrrad TDaily=MyTemp 
New PVSystem.BT184723 bus1=1010391012.1.2.3.4 phases=3 conn=delta kv=0.22 kva=22.86 pf=1 irrad=0.84 pmpp=22.86 temperature=25 %cutin=0.1 %cutout=0.1 effcurve=MyEff p-tcurve=MyPvsT Daily=MyIrrad TDaily=MyTemp 
New PVSystem.BT184726 bus1=1011182254.1.2.4 phases=1 conn=delta kv=0.22 kva=24.003 pf=1 irrad=0.84 pmpp=24.003 temperature=25 %cutin=0.1 %cutout=0.1 effcurve=MyEff p-tcurve=MyPvsT Daily=MyIrrad TDaily=MyTemp 
New PVSystem.BT184727 bus1=1010391012.1.2.3.4 phases=3 conn=delta kv=0.22 kva=22.86 pf=1 irrad=0.84 pmpp=22.86 temperature=25 %cutin=0.1 %cutout=0.1 effcurve=MyEff p-tcurve=MyPvsT Daily=MyIrrad TDaily=MyTemp 
New PVSystem.BT184737 bus1=1010391012.1.2.3.4 phases=3 conn=delta kv=0.22 kva=22.86 pf=1 irrad=0.84 pmpp=22.86 temperature=25 %cutin=0.1 %cutout=0.1 effcurve=MyEff p-tcurve=MyPvsT Daily=MyIrrad TDaily=MyTemp 
New PVSystem.BT184738 bus1=1010391012.1.2.3.4 phases=3 conn=delta kv=0.22 kva=24.003 pf=1 irrad=0.84 pmpp=24.003 temperature=25 %cutin=0.1 %cutout=0.1 effcurve=MyEff p-tcurve=MyPvsT Daily=MyIrrad TDaily=MyTemp 
New PVSystem.BT184739 bus1=1010921812.1.2.4 phases=1 conn=delta kv=0.22 kva=22.86 pf=1 irrad=0.84 pmpp=22.86 temperature=25 %cutin=0.1 %cutout=0.1 effcurve=MyEff p-tcurve=MyPvsT Daily=MyIrrad TDaily=MyTemp 
New PVSystem.BT184745 bus1=1010930002.1.2.4 phases=1 conn=delta kv=0.22 kva=22.86 pf=1 irrad=0.84 pmpp=22.86 temperature=25 %cutin=0.1 %cutout=0.1 effcurve=MyEff p-tcurve=MyPvsT Daily=MyIrrad TDaily=MyTemp 
New PVSystem.BT184751 bus1=1010805491.1.2.3.4 phases=3 conn=delta kv=0.22 kva=22.86 pf=1 irrad=0.84 pmpp=22.86 temperature=25 %cutin=0.1 %cutout=0.1 effcurve=MyEff p-tcurve=MyPvsT Daily=MyIrrad TDaily=MyTemp 
New PVSystem.BT184762 bus1=1010817273.1.2.4 phases=1 conn=delta kv=0.22 kva=22.86 pf=1 irrad=0.84 pmpp=22.86 temperature=25 %cutin=0.1 %cutout=0.1 effcurve=MyEff p-tcurve=MyPvsT Daily=MyIrrad TDaily=MyTemp 
